Version 4
SHEET 1 880 680
WIRE 160 64 128 64
WIRE 208 64 160 64
WIRE 464 64 432 64
WIRE 512 64 464 64
WIRE 128 96 128 64
WIRE 432 96 432 64
FLAG 160 64 file_1
FLAG 464 64 wh_2
FLAG 432 176 0
FLAG 128 176 0
SYMBOL bv 432 80 R0
SYMATTR InstName WH2
SYMATTR Value V=WHITE(time*1e3)
SYMBOL voltage 128 80 R0
WINDOW 123 0 0 Left 2
WINDOW 39 0 0 Left 2
SYMATTR InstName V1
SYMATTR Value PWL file=pwlsrc_10k_1ms.txt
TEXT 120 8 Left 2 !.tran 0 5 0 1m
